.MODEL KS133A D(IS=89.00E-15 N=1.16 RS=25 CJO=72.00P TT=57N
+ M=0.47 VJ=0.8 FC=0.5 BV=3.3 IBV=5U EG=1.11 XTI=3)
